Circuit: * Z:\Users\kendrickwiersma\Dropbox\Sr. Design Project\E-Meter\Simulations\Voltage_Shunt_Sim\Voltage_Shunt_Simulation.asc

.OP point found by inspection.

Date: Wed May 11 00:18:45 2011
Total elapsed time: 0.048 seconds.

tnom = 27
temp = 27
method = modified trap
totiter = 2098
traniter = 2098
tranpoints = 1050
accept = 1050
rejected = 0
matrix size = 7
fillins = 0
solver = Normal
Matrix Compiler1: off  [0.0]/0.3/0.2
Matrix Compiler2: 467 bytes object code size  0.1/0.5/[0.1]


