Circuit: * Z:\Users\kendrickwiersma\Dropbox\Sr. Design Project\E-Meter\Simulations\Current_Detect_Sim\Current_Detect_Schematic.asc

Direct Newton iteration for .op point succeeded.

Date: Tue May 10 21:06:54 2011
Total elapsed time: 0.112 seconds.

tnom = 27
temp = 27
method = modified trap
totiter = 2088
traniter = 2084
tranpoints = 1043
accept = 1043
rejected = 0
matrix size = 8
fillins = 2
solver = Normal
Matrix Compiler1: 478 bytes object code size  0.2/0.3/[0.2]
Matrix Compiler2: off  [0.1]/0.2/0.2


